FoamFile{version 2.0;format ascii;class dictionary;location system;object adjointDict;}
nSamples 3; deltaFFD (-10.0); svdType cross; svdTol 1e-8; svdMaxIts 100; svdRequestedN 3; useMF 0; mfStep 1e-8;
